/*--------------------------------*- C++ -*----------------------------------*\
| =========                 |                                                 |
| \\      /  F ield         | OpenFOAM: The Open Source CFD Toolbox           |
|  \\    /   O peration     | Version:  v2206                                 |
|   \\  /    A nd           | Website:  www.openfoam.com                      |
|    \\/     M anipulation  |                                                 |
\*---------------------------------------------------------------------------*/
FoamFile
{
    version     2.0;
    format      ascii;
    class       dictionary;
    object      turbulenceProperties;
}
// * * * * * * * * * * * * * * * * * * * * * * * * * * * * * * * * * * * * * //

simulationType      RAS;

RAS
{
    // Tested with kEpsilon, realizableKE, kOmega, kOmegaSST,
    // ShihQuadraticKE, LienCubicKE.
    RASModel        newKE;
   // RASModel        LaunderSharmaKE;

    turbulence      on;

    printCoeffs     on;

    // Optional model coefficieints
    Cmu             0.09;
    C1              1.55;
    C2              2.0;
    C3              0.0;
    sigmak          1.0;
    sigmaEps        1.3;
}


// ************************************************************************* //
